Circuit: .title KiCad schematic

Instance "m:q1:1": Width narrower than recommended for a level 3 MOSFET.
Direct Newton iteration for .op point succeeded.

Date: Sat Jan 29 21:30:33 2022
Total elapsed time: 5.162 seconds.

tnom = 27
temp = 27
method = modified trap
totiter = 1243182
traniter = 1243175
tranpoints = 497320
accept = 353132
rejected = 144188
matrix size = 19
fillins = 5
solver = Normal
Matrix Compiler1: 1.13 KB object code size  0.5/0.3/[0.2]
Matrix Compiler2: 1.47 KB object code size  0.2/0.3/[0.2]

