Circuit: .title KiCad schematic

Direct Newton iteration for .op point succeeded.

Date: Fri Nov 26 18:47:57 2021
Total elapsed time: 0.410 seconds.

tnom = 27
temp = 27
method = modified trap
totiter = 11386
traniter = 11378
tranpoints = 2750
accept = 2367
rejected = 383
matrix size = 14
fillins = 0
solver = Normal
Matrix Compiler1: 384 bytes object code size  0.2/0.2/[0.1]
Matrix Compiler2: off  [0.2]/0.2/0.2

